powsybl-network-store-server-parent/network-store-integration-test/src/test/resources/test.xiidm
<?xml version='1.0' encoding='UTF-8'?>
<iidm:network xmlns:iidm="http://www.itesla_project.eu/schema/iidm/1_0" id="sim1" caseDate="2019-05-27T11:31:41.109+02:00" forecastDistance="0" sourceFormat="test">
    <iidm:substation id="P1" country="FR" tso="RTE" geographicalTags="A">
        <iidm:voltageLevel id="VLGEN" nominalV="24.0" topologyKind="NODE_BREAKER">
            <iidm:nodeBreakerTopology nodeCount="10">
            </iidm:nodeBreakerTopology>
        </iidm:voltageLevel>
    </iidm:substation>
</iidm:network>
